Circuit: * C:\Users\josea\OneDrive\Documentos\ElectronicsProjects\PreAmp\3BandEQsimulation.asc

Direct Newton iteration failed to find .op point.  (Use ".option noopiter" to skip.)
Starting Gmin stepping
Gmin = 10
Gmin = 1.07374
Gmin = 0.115292
Gmin = 0.0123794
Gmin = 0.00132923
Gmin = 0.000142725
Gmin = 1.5325e-05
Gmin = 1.6455e-06
vernier = 0.5
Gmin = 3.78697e-07
vernier = 0.666667
vernier = 0.888888
Gmin = 7.94338e-08
vernier = 1
Gmin = 9.33136e-09
Gmin = 1.00195e-09
Gmin = 1.07583e-10
Gmin = 1.15517e-11
Gmin = 1.24035e-12
Gmin = 1.33182e-13
Gmin = 0
Gmin stepping succeeded in finding the operating point.


Date: Sun Feb 16 22:21:43 2025
Total elapsed time: 0.175 seconds.

tnom = 27
temp = 27
method = trap
totiter = 521
traniter = 0
tranpoints = 0
accept = 0
rejected = 0
matrix size = 40
fillins = 68
solver = Normal
Avg thread counts: 13.2/0.0/20.0/1.7
Matrix Compiler1:     320 opcodes
Matrix Compiler2:     357 opcodes  0.5/[0.5]/0.7

