Circuit: * C:\Users\josea\OneDrive\Documentos\ElectronicsProjects\PreAmp\Draft1.asc

.OP point found by inspection.

Date: Sun Mar  2 19:31:16 2025
Total elapsed time: 0.056 seconds.

tnom = 27
temp = 27
method = trap
totiter = 0
traniter = 0
tranpoints = 0
accept = 0
rejected = 0
matrix size = 3
fillins = 0
solver = Normal
Avg thread counts: 20.0/0.0/0.0/2.7
Matrix Compiler1:       4 opcodes
Matrix Compiler2:      15 opcodes
